data/case94pi.m
function mpc = case94pi
%CASE94PI  Power flow data for 70 bus distribution system from Pires, et al
%   Please see CASEFORMAT for details on the case file format.
%
%   Data from ...
%       Pires DF, Antunes CH, Martins AG (2012) NSGA-II with local search for
%       a multi-objective reactive power compensation problem. Int J Electr
%       Power Energy Syst 43:313-324. doi: 10.1016/j.ijepes.2012.05.024
%       URL: https://doi.org/10.1016/j.ijepes.2012.05.024

%% MATPOWER Case Format : Version 2
function mpc = case94pi
mpc.version = '2';

%%-----  Power Flow Data  -----%%
%% system MVA base
mpc.baseMVA = 1;
%% bus data
%    bus_i    type    Pd    Qd    Gs    Bs    area    Vm    Va    baseKV    zone    Vmax    Vmin
mpc.bus = [
    1   3   0.0 0.0 0.0 0.0 1   1.0 0.0 15.0    1   1.0 1.0
    2   1   0.0225  2.2499999999999998e-5   0.0 0.0 1   1.0 0.0 15.0    1   1.1 0.9
    3   1   0.2403  0.0002403   0.0 0.0 1   1.0 0.0 15.0    1   1.1 0.9
    4   1   0.024300000000000002    2.43e-5 0.0 0.0 1   1.0 0.0 15.0    1   1.1 0.9
    5   1   0.0 0.0 0.0 0.0 1   1.0 0.0 15.0    1   1.1 0.9
    6   1   0.0 0.0 0.0 0.0 2   1.0 0.0 15.0    1   1.1 0.9
    7   1   0.0288  2.88e-5 0.0 0.0 2   1.0 0.0 15.0    1   1.1 0.9
    8   1   0.0 0.0 0.0 0.0 2   1.0 0.0 15.0    1   1.1 0.9
    9   1   0.0 0.0 0.0 0.0 2   1.0 0.0 15.0    1   1.1 0.9
    10  1   0.0 0.0 0.0 0.0 3   1.0 0.0 15.0    1   1.1 0.9
    11  1   0.0 0.0 0.0 0.0 3   1.0 0.0 15.0    1   1.1 0.9
    12  1   0.0 0.0 0.0 0.0 4   1.0 0.0 15.0    1   1.1 0.9
    13  1   0.0 0.0 0.0 0.0 4   1.0 0.0 15.0    1   1.1 0.9
    14  1   0.0576  5.76e-5 0.0 0.0 4   1.0 0.0 15.0    1   1.1 0.9
    15  1   0.0 0.0 0.0 0.0 4   1.0 0.0 15.0    1   1.1 0.9
    16  1   0.0 0.0 0.0 0.0 4   1.0 0.0 15.0    1   1.1 0.9
    17  1   0.0189  1.89e-5 0.0 0.0 5   1.0 0.0 15.0    1   1.1 0.9
    18  1   0.0 0.0 0.0 0.0 5   1.0 0.0 15.0    1   1.1 0.9
    19  1   0.0 0.0 0.0 0.0 5   1.0 0.0 15.0    1   1.1 0.9
    20  1   0.055799999999999995    5.5799999999999994e-5   0.0 0.0 6   1.0 0.0 15.0    1   1.1 0.9
    21  1   0.0405  4.05e-5 0.0 0.0 6   1.0 0.0 15.0    1   1.1 0.9
    22  1   0.0 0.0 0.0 0.0 6   1.0 0.0 15.0    1   1.1 0.9
    23  1   0.054   5.4e-5  0.0 0.0 6   1.0 0.0 15.0    1   1.1 0.9
    24  1   0.0 0.0 0.0 0.0 6   1.0 0.0 15.0    1   1.1 0.9
    25  1   0.0 0.0 0.0 0.0 7   1.0 0.0 15.0    1   1.1 0.9
    26  1   0.046799999999999994    4.679999999999999e-5    0.0 0.0 7   1.0 0.0 15.0    1   1.1 0.9
    27  1   0.0 0.0 0.0 0.0 7   1.0 0.0 15.0    1   1.1 0.9
    28  1   0.0 0.0 0.0 0.0 8   1.0 0.0 15.0    1   1.1 0.9
    29  1   0.0135  1.35e-5 0.0 0.0 8   1.0 0.0 15.0    1   1.1 0.9
    30  1   0.0036  3.6e-6  0.0 0.0 8   1.0 0.0 15.0    1   1.1 0.9
    31  1   0.018   1.7999999999999997e-5   0.0 0.0 8   1.0 0.0 15.0    1   1.1 0.9
    32  1   0.0216  2.16e-5 0.0 0.0 8   1.0 0.0 15.0    1   1.1 0.9
    33  1   0.009   8.999999999999999e-6    0.0 0.0 8   1.0 0.0 15.0    1   1.1 0.9
    34  1   0.0648  6.48e-5 0.0 0.0 1   1.0 0.0 15.0    1   1.1 0.9
    35  1   0.06570000000000001 6.570000000000001e-5    0.0 0.0 1   1.0 0.0 15.0    1   1.1 0.9
    36  1   0.0594  5.94e-5 0.0 0.0 1   1.0 0.0 15.0    1   1.1 0.9
    37  1   0.0135  1.35e-5 0.0 0.0 1   1.0 0.0 15.0    1   1.1 0.9
    38  1   0.1611  0.00016109999999999999  0.0 0.0 2   1.0 0.0 15.0    1   1.1 0.9
    39  1   0.0261  2.61e-5 0.0 0.0 2   1.0 0.0 15.0    1   1.1 0.9
    40  1   0.1341  0.0001341   0.0 0.0 2   1.0 0.0 15.0    1   1.1 0.9
    41  1   0.0855  8.55e-5 0.0 0.0 2   1.0 0.0 15.0    1   1.1 0.9
    42  1   0.0414  4.14e-5 0.0 0.0 2   1.0 0.0 15.0    1   1.1 0.9
    43  1   0.0414  4.14e-5 0.0 0.0 2   1.0 0.0 15.0    1   1.1 0.9
    44  1   0.0414  4.14e-5 0.0 0.0 2   1.0 0.0 15.0    1   1.1 0.9
    45  1   0.0216  2.16e-5 0.0 0.0 2   1.0 0.0 15.0    1   1.1 0.9
    46  1   0.0252  2.52e-5 0.0 0.0 2   1.0 0.0 15.0    1   1.1 0.9
    47  1   0.045899999999999996    4.59e-5 0.0 0.0 3   1.0 0.0 15.0    1   1.1 0.9
    48  1   0.036899999999999995    3.6899999999999996e-5   0.0 0.0 3   1.0 0.0 15.0    1   1.1 0.9
    49  1   0.0639  6.39e-5 0.0 0.0 3   1.0 0.0 15.0    1   1.1 0.9
    50  1   0.0684  6.840000000000001e-5    0.0 0.0 3   1.0 0.0 15.0    1   1.1 0.9
    51  1   0.027899999999999998    2.7899999999999997e-5   0.0 0.0 3   1.0 0.0 15.0    1   1.1 0.9
    52  1   0.081   8.1e-5  0.0 0.0 3   1.0 0.0 15.0    1   1.1 0.9
    53  1   0.0693  6.93e-5 0.0 0.0 3   1.0 0.0 15.0    1   1.1 0.9
    54  1   0.0621  6.21e-5 0.0 0.0 3   1.0 0.0 15.0    1   1.1 0.9
    55  1   0.0351  3.51e-5 0.0 0.0 9   1.0 0.0 15.0    1   1.1 0.9
    56  1   0.2052  0.0002052   0.0 0.0 9   1.0 0.0 15.0    1   1.1 0.9
    57  1   0.0315  3.15e-5 0.0 0.0 9   1.0 0.0 15.0    1   1.1 0.9
    58  1   0.5211  0.0005211   0.0 0.0 9   1.0 0.0 15.0    1   1.1 0.9
    59  1   0.2124  0.0002124   0.0 0.0 9   1.0 0.0 15.0    1   1.1 0.9
    60  1   0.0396  3.96e-5 0.0 0.0 9   1.0 0.0 15.0    1   1.1 0.9
    61  1   0.045   4.4999999999999996e-5   0.0 0.0 9   1.0 0.0 15.0    1   1.1 0.9
    62  1   0.0171  1.7100000000000002e-5   0.0 0.0 9   1.0 0.0 15.0    1   1.1 0.9
    63  1   0.0216  2.16e-5 0.0 0.0 9   1.0 0.0 15.0    1   1.1 0.9
    64  1   0.0351  3.51e-5 0.0 0.0 9   1.0 0.0 15.0    1   1.1 0.9
    65  1   0.0702  7.02e-5 0.0 0.0 9   1.0 0.0 15.0    1   1.1 0.9
    66  1   0.0342  3.4200000000000005e-5   0.0 0.0 9   1.0 0.0 15.0    1   1.1 0.9
    67  1   0.0225  2.2499999999999998e-5   0.0 0.0 3   1.0 0.0 15.0    1   1.1 0.9
    68  1   0.045899999999999996    4.59e-5 0.0 0.0 3   1.0 0.0 15.0    1   1.1 0.9
    69  1   0.033299999999999996    3.3299999999999996e-5   0.0 0.0 4   1.0 0.0 15.0    1   1.1 0.9
    70  1   0.036899999999999995    3.6899999999999996e-5   0.0 0.0 4   1.0 0.0 15.0    1   1.1 0.9
    71  1   0.045   4.4999999999999996e-5   0.0 0.0 4   1.0 0.0 15.0    1   1.1 0.9
    72  1   0.0756  7.56e-5 0.0 0.0 4   1.0 0.0 15.0    1   1.1 0.9
    73  1   0.0675  6.75e-5 0.0 0.0 4   1.0 0.0 15.0    1   1.1 0.9
    74  1   0.027899999999999998    2.7899999999999997e-5   0.0 0.0 4   1.0 0.0 15.0    1   1.1 0.9
    75  1   0.038700000000000005    3.8700000000000006e-5   0.0 0.0 5   1.0 0.0 15.0    1   1.1 0.9
    76  1   0.0531  5.31e-5 0.0 0.0 5   1.0 0.0 15.0    1   1.1 0.9
    77  1   0.06570000000000001 6.570000000000001e-5    0.0 0.0 5   1.0 0.0 15.0    1   1.1 0.9
    78  1   0.063   6.3e-5  0.0 0.0 5   1.0 0.0 15.0    1   1.1 0.9
    79  1   0.0675  6.75e-5 0.0 0.0 5   1.0 0.0 15.0    1   1.1 0.9
    80  1   0.045   4.4999999999999996e-5   0.0 0.0 5   1.0 0.0 15.0    1   1.1 0.9
    81  1   0.009   8.999999999999999e-6    0.0 0.0 5   1.0 0.0 15.0    1   1.1 0.9
    82  1   0.0162  1.62e-5 0.0 0.0 5   1.0 0.0 15.0    1   1.1 0.9
    83  1   0.0675  6.75e-5 0.0 0.0 6   1.0 0.0 15.0    1   1.1 0.9
    84  1   0.29610000000000003 0.00029610000000000004  0.0 0.0 6   1.0 0.0 15.0    1   1.1 0.9
    85  1   0.072   7.199999999999999e-5    0.0 0.0 6   1.0 0.0 15.0    1   1.1 0.9
    86  1   0.0765  7.65e-5 0.0 0.0 6   1.0 0.0 15.0    1   1.1 0.9
    87  1   0.09090000000000001 9.090000000000001e-5    0.0 0.0 6   1.0 0.0 15.0    1   1.1 0.9
    88  1   0.072   7.199999999999999e-5    0.0 0.0 6   1.0 0.0 15.0    1   1.1 0.9
    89  1   0.063   6.3e-5  0.0 0.0 7   1.0 0.0 15.0    1   1.1 0.9
    90  1   0.0216  2.16e-5 0.0 0.0 7   1.0 0.0 15.0    1   1.1 0.9
    91  1   0.036899999999999995    3.6899999999999996e-5   0.0 0.0 7   1.0 0.0 15.0    1   1.1 0.9
    92  1   0.0207  2.07e-5 0.0 0.0 7   1.0 0.0 15.0    1   1.1 0.9
    93  1   0.0171  1.7100000000000002e-5   0.0 0.0 7   1.0 0.0 15.0    1   1.1 0.9
    94  1   0.09    8.999999999999999e-5    0.0 0.0 8   1.0 0.0 15.0    1   1.1 0.9
];

%% generator data
%    bus    Pg    Qg    Qmax    Qmin    Vg    mBase    status    Pmax    Pmin    Pc1    Pc2    Qc1min    Qc1max    Qc2min    Qc2max    ramp_agc    ramp_10    ramp_30    ramp_q    apf
mpc.gen = [
    1   0.0 0.0 10.0    -10.0   1.0 100.0   1   10.0    0.0 0.0 0.0 0.0 0.0 0.0 0.0 0.0 0.0 0.0 0.0 0.0
];

%% branch data
%    f_bus    t_bus    r    x    b    rateA    rateB    rateC    ratio    angle    status    angmin    angmax
mpc.branch = [
    1   2   0.0004977777777777778   0.0008324444444444445   0.0 0.0 0.0 0.0 0   0   1   -60.0001403060998   60.0001403060998
    2   3   0.00033911111111111116  0.0005662222222222223   0.0 0.0 0.0 0.0 0   0   1   -60.0001403060998   60.0001403060998
    3   4   0.0008404444444444444   0.001404888888888889    0.0 0.0 0.0 0.0 0   0   1   -60.0001403060998   60.0001403060998
    4   5   0.000996888888888889    0.0016662222222222224   0.0 0.0 0.0 0.0 0   0   1   -60.0001403060998   60.0001403060998
    5   6   0.0011426666666666666   0.0019097777777777778   0.0 0.0 0.0 0.0 0   0   1   -60.0001403060998   60.0001403060998
    6   7   0.0005955555555555556   0.0009951111111111111   0.0 0.0 0.0 0.0 0   0   1   -60.0001403060998   60.0001403060998
    7   8   0.001327111111111111    0.002218222222222222    0.0 0.0 0.0 0.0 0   0   1   -60.0001403060998   60.0001403060998
    8   9   0.000868    0.0014511111111111111   0.0 0.0 0.0 0.0 0   0   1   -60.0001403060998   60.0001403060998
    9   10  0.0022653333333333336   0.003786222222222222    0.0 0.0 0.0 0.0 0   0   1   -60.0001403060998   60.0001403060998
    10  11  0.006801333333333334    0.006711555555555556    0.0 0.0 0.0 0.0 0   0   1   -60.0001403060998   60.0001403060998
    11  12  0.0008395555555555556   0.0008284444444444445   0.0 0.0 0.0 0.0 0   0   1   -60.0001403060998   60.0001403060998
    12  13  0.0008071111111111112   0.0007968888888888889   0.0 0.0 0.0 0.0 0   0   1   -60.0001403060998   60.0001403060998
    13  14  0.0002937777777777778   0.0002902222222222222   0.0 0.0 0.0 0.0 0   0   1   -60.0001403060998   60.0001403060998
    14  15  0.0018288888888888888   0.0018048888888888889   0.0 0.0 0.0 0.0 0   0   1   -60.0001403060998   60.0001403060998
    15  16  0.0011484444444444446   0.0011333333333333334   0.0 0.0 0.0 0.0 0   0   1   -60.0001403060998   60.0001403060998
    16  17  0.0009035555555555556   0.0008915555555555556   0.0 0.0 0.0 0.0 0   0   1   -60.0001403060998   60.0001403060998
    17  18  0.0032191111111111114   0.003176888888888889    0.0 0.0 0.0 0.0 0   0   1   -60.0001403060998   60.0001403060998
    18  19  0.000960888888888889    0.0009484444444444445   0.0 0.0 0.0 0.0 0   0   1   -60.0001403060998   60.0001403060998
    19  20  0.0015555555555555555   0.001535111111111111    0.0 0.0 0.0 0.0 0   0   1   -60.0001403060998   60.0001403060998
    20  21  0.006566666666666667    0.0017293333333333334   0.0 0.0 0.0 0.0 0   0   1   -60.0001403060998   60.0001403060998
    21  22  0.002   0.0005266666666666666   0.0 0.0 0.0 0.0 0   0   1   -60.0001403060998   60.0001403060998
    22  23  0.003426666666666667    0.0009022222222222223   0.0 0.0 0.0 0.0 0   0   1   -60.0001403060998   60.0001403060998
    23  24  0.003933333333333333    0.001036    0.0 0.0 0.0 0.0 0   0   1   -60.0001403060998   60.0001403060998
    24  25  0.004406666666666667    0.0011604444444444444   0.0 0.0 0.0 0.0 0   0   1   -60.0001403060998   60.0001403060998
    25  26  0.0017066666666666667   0.0004493333333333333   0.0 0.0 0.0 0.0 0   0   1   -60.0001403060998   60.0001403060998
    26  27  0.00322 0.000848    0.0 0.0 0.0 0.0 0   0   1   -60.0001403060998   60.0001403060998
    27  28  0.005266666666666667    0.001387111111111111    0.0 0.0 0.0 0.0 0   0   1   -60.0001403060998   60.0001403060998
    28  29  0.005490222222222223    0.003066222222222222    0.0 0.0 0.0 0.0 0   0   1   -60.0001403060998   60.0001403060998
    29  30  0.001580888888888889    0.0008831111111111111   0.0 0.0 0.0 0.0 0   0   1   -60.0001403060998   60.0001403060998
    30  31  0.004219555555555555    0.0015137777777777777   0.0 0.0 0.0 0.0 0   0   1   -60.0001403060998   60.0001403060998
    31  32  0.003066222222222222    0.0017124444444444444   0.0 0.0 0.0 0.0 0   0   1   -60.0001403060998   60.0001403060998
    32  33  0.006980888888888889    0.003899111111111111    0.0 0.0 0.0 0.0 0   0   1   -60.0001403060998   60.0001403060998
    5   34  0.005624444444444445    0.002017777777777778    0.0 0.0 0.0 0.0 0   0   1   -60.0001403060998   60.0001403060998
    5   35  0.0007502222222222222   0.0004191111111111111   0.0 0.0 0.0 0.0 0   0   1   -60.0001403060998   60.0001403060998
    35  36  0.0012182222222222223   0.0006804444444444445   0.0 0.0 0.0 0.0 0   0   1   -60.0001403060998   60.0001403060998
    36  37  0.0011342222222222222   0.0006333333333333333   0.0 0.0 0.0 0.0 0   0   1   -60.0001403060998   60.0001403060998
    6   38  0.001851111111111111    0.0010337777777777778   0.0 0.0 0.0 0.0 0   0   1   -60.0001403060998   60.0001403060998
    6   39  0.006593333333333334    0.0017364444444444443   0.0 0.0 0.0 0.0 0   0   1   -60.0001403060998   60.0001403060998
    39  40  0.008   0.0021066666666666664   0.0 0.0 0.0 0.0 0   0   1   -60.0001403060998   60.0001403060998
    40  41  0.002300888888888889    0.0012853333333333334   0.0 0.0 0.0 0.0 0   0   1   -60.0001403060998   60.0001403060998
    41  42  0.003176888888888889    0.0017742222222222222   0.0 0.0 0.0 0.0 0   0   1   -60.0001403060998   60.0001403060998
    8   43  0.0047  0.001237777777777778    0.0 0.0 0.0 0.0 0   0   1   -60.0001403060998   60.0001403060998
    43  44  0.002310222222222222    0.0012902222222222223   0.0 0.0 0.0 0.0 0   0   1   -60.0001403060998   60.0001403060998
    44  45  0.0014848888888888889   0.0008293333333333333   0.0 0.0 0.0 0.0 0   0   1   -60.0001403060998   60.0001403060998
    9   46  0.001551111111111111    0.0008662222222222222   0.0 0.0 0.0 0.0 0   0   1   -60.0001403060998   60.0001403060998
    10  47  0.0025648888888888887   0.0014324444444444443   0.0 0.0 0.0 0.0 0   0   1   -60.0001403060998   60.0001403060998
    47  48  0.001599111111111111    0.0008928888888888889   0.0 0.0 0.0 0.0 0   0   1   -60.0001403060998   60.0001403060998
    48  49  0.003416888888888889    0.0019084444444444444   0.0 0.0 0.0 0.0 0   0   1   -60.0001403060998   60.0001403060998
    49  50  0.001155111111111111    0.000644888888888889    0.0 0.0 0.0 0.0 0   0   1   -60.0001403060998   60.0001403060998
    50  51  0.003846222222222222    0.002148    0.0 0.0 0.0 0.0 0   0   1   -60.0001403060998   60.0001403060998
    10  52  0.0023324444444444447   0.002301777777777778    0.0 0.0 0.0 0.0 0   0   1   -60.0001403060998   60.0001403060998
    52  53  0.000772    0.0007617777777777778   0.0 0.0 0.0 0.0 0   0   1   -60.0001403060998   60.0001403060998
    53  54  0.0027324444444444445   0.002696888888888889    0.0 0.0 0.0 0.0 0   0   1   -60.0001403060998   60.0001403060998
    54  55  0.00088 0.0008684444444444444   0.0 0.0 0.0 0.0 0   0   1   -60.0001403060998   60.0001403060998
    55  56  0.00088 0.0008684444444444444   0.0 0.0 0.0 0.0 0   0   1   -60.0001403060998   60.0001403060998
    56  57  0.0012666666666666666   0.0012502222222222222   0.0 0.0 0.0 0.0 0   0   1   -60.0001403060998   60.0001403060998
    57  58  0.0006351111111111111   0.0006266666666666666   0.0 0.0 0.0 0.0 0   0   1   -60.0001403060998   60.0001403060998
    58  59  0.001515111111111111    0.0008462222222222223   0.0 0.0 0.0 0.0 0   0   1   -60.0001403060998   60.0001403060998
    59  60  0.001635111111111111    0.0009133333333333333   0.0 0.0 0.0 0.0 0   0   1   -60.0001403060998   60.0001403060998
    60  61  0.001596    0.0008915555555555556   0.0 0.0 0.0 0.0 0   0   1   -60.0001403060998   60.0001403060998
    61  62  0.001556888888888889    0.0008697777777777778   0.0 0.0 0.0 0.0 0   0   1   -60.0001403060998   60.0001403060998
    62  63  0.001875111111111111    0.001047111111111111    0.0 0.0 0.0 0.0 0   0   1   -60.0001403060998   60.0001403060998
    63  64  0.006835555555555556    0.0024519999999999998   0.0 0.0 0.0 0.0 0   0   1   -60.0001403060998   60.0001403060998
    64  65  0.004350222222222222    0.0015604444444444446   0.0 0.0 0.0 0.0 0   0   1   -60.0001403060998   60.0001403060998
    65  66  0.006627111111111111    0.0023773333333333337   0.0 0.0 0.0 0.0 0   0   1   -60.0001403060998   60.0001403060998
    11  67  0.004306666666666667    0.0011342222222222222   0.0 0.0 0.0 0.0 0   0   1   -60.0001403060998   60.0001403060998
    67  68  0.00298 0.0007848888888888889   0.0 0.0 0.0 0.0 0   0   1   -60.0001403060998   60.0001403060998
    12  69  0.0019351111111111112   0.0010808888888888888   0.0 0.0 0.0 0.0 0   0   1   -60.0001403060998   60.0001403060998
    13  70  0.002058222222222222    0.0011493333333333334   0.0 0.0 0.0 0.0 0   0   1   -60.0001403060998   60.0001403060998
    70  71  0.0012031111111111112   0.000672    0.0 0.0 0.0 0.0 0   0   1   -60.0001403060998   60.0001403060998
    15  72  0.002970222222222222    0.0016586666666666666   0.0 0.0 0.0 0.0 0   0   1   -60.0001403060998   60.0001403060998
    72  73  0.003788888888888889    0.0021164444444444447   0.0 0.0 0.0 0.0 0   0   1   -60.0001403060998   60.0001403060998
    16  74  0.0014728888888888888   0.0008226666666666666   0.0 0.0 0.0 0.0 0   0   1   -60.0001403060998   60.0001403060998
    18  75  0.0018000000000000002   0.0010053333333333333   0.0 0.0 0.0 0.0 0   0   1   -60.0001403060998   60.0001403060998
    19  76  0.0019408888888888887   0.0010840000000000001   0.0 0.0 0.0 0.0 0   0   1   -60.0001403060998   60.0001403060998
    19  77  0.0015182222222222222   0.000848    0.0 0.0 0.0 0.0 0   0   1   -60.0001403060998   60.0001403060998
    77  78  0.000939111111111111    0.0005244444444444445   0.0 0.0 0.0 0.0 0   0   1   -60.0001403060998   60.0001403060998
    78  79  0.004999555555555556    0.0017933333333333334   0.0 0.0 0.0 0.0 0   0   1   -60.0001403060998   60.0001403060998
    79  80  0.005216888888888889    0.0029137777777777777   0.0 0.0 0.0 0.0 0   0   1   -60.0001403060998   60.0001403060998
    80  81  0.0027511111111111113   0.0015364444444444444   0.0 0.0 0.0 0.0 0   0   1   -60.0001403060998   60.0001403060998
    81  82  0.0025262222222222222   0.0014106666666666668   0.0 0.0 0.0 0.0 0   0   1   -60.0001403060998   60.0001403060998
    20  83  0.0037302222222222224   0.0013382222222222222   0.0 0.0 0.0 0.0 0   0   1   -60.0001403060998   60.0001403060998
    83  84  0.000948    0.0005293333333333334   0.0 0.0 0.0 0.0 0   0   1   -60.0001403060998   60.0001403060998
    84  85  0.00162 0.0009048888888888889   0.0 0.0 0.0 0.0 0   0   1   -60.0001403060998   60.0001403060998
    85  86  0.001424888888888889    0.000796    0.0 0.0 0.0 0.0 0   0   1   -60.0001403060998   60.0001403060998
    22  87  0.003411111111111111    0.001904888888888889    0.0 0.0 0.0 0.0 0   0   1   -60.0001403060998   60.0001403060998
    24  88  0.007072888888888889    0.0025373333333333333   0.0 0.0 0.0 0.0 0   0   1   -60.0001403060998   60.0001403060998
    25  89  0.00312 0.0017426666666666667   0.0 0.0 0.0 0.0 0   0   1   -60.0001403060998   60.0001403060998
    25  90  0.0921911111111111  0.003307111111111111    0.0 0.0 0.0 0.0 0   0   1   -60.0001403060998   60.0001403060998
    90  91  0.0030133333333333336   0.0010808888888888888   0.0 0.0 0.0 0.0 0   0   1   -60.0001403060998   60.0001403060998
    91  92  0.002550222222222222    0.0014244444444444445   0.0 0.0 0.0 0.0 0   0   1   -60.0001403060998   60.0001403060998
    27  93  0.002628    0.001468    0.0 0.0 0.0 0.0 0   0   1   -60.0001403060998   60.0001403060998
    28  94  0.005273333333333334    0.0013884444444444445   0.0 0.0 0.0 0.0 0   0   1   -60.0001403060998   60.0001403060998
];

%%-----  OPF Data  -----%%
%% cost data
%    1    startup    shutdown    n    x1    y1    ...    xn    yn
%    2    startup    shutdown    n    c(n-1)    ...    c0
mpc.gencost = [
    2   0.0 0.0 2   20.0    0.0
];
